epi1846961__4k63_i_model_mol
  PyMOL3.1          3D                             0

 87 89  0  0  0  0  0  0  0  0999 V2000
  -30.5600  -42.9260   23.1170 C   0  0  0  0  0  0  0  0  0  0  0  0
  -31.3280  -42.4130   20.9080 N   0  0  0  0  0  0  0  0  0  0  0  0
  -29.7390  -41.1730   21.7880 O   0  0  0  0  0  0  0  0  0  0  0  0
  -30.5010  -42.0870   21.8760 C   0  0  0  0  0  0  0  0  0  0  0  0
  -39.4960  -35.1900   12.1320 N   0  0  0  0  0  0  0  0  0  0  0  0
  -30.0330  -43.4450   18.6900 O   0  0  0  0  0  0  0  0  0  0  0  0
  -31.3640  -41.7300   19.6230 C   0  0  0  0  0  0  0  0  0  0  0  0
  -31.2630  -42.1720   17.2230 O   0  0  0  0  0  0  0  0  0  0  0  0
  -31.0840  -42.7010   18.5360 C   0  0  0  0  0  0  0  0  0  0  0  0
  -31.7730  -40.0200   15.3970 O   0  0  0  0  0  0  0  0  0  0  0  0
  -32.5850  -41.5640   17.0180 C   0  0  0  0  0  0  0  0  0  0  0  0
  -34.0970  -39.9510   17.8420 O   0  0  0  0  0  0  0  0  0  0  0  0
  -32.6310  -41.1040   15.5890 C   0  0  0  0  0  0  0  0  0  0  0  0
  -33.8620  -37.8900   18.8810 O   0  0  0  0  0  0  0  0  0  0  0  0
  -32.8140  -40.4720   18.0340 C   0  0  0  0  0  0  0  0  0  0  0  0
  -32.2140  -36.2890   20.4430 O   0  0  0  0  0  0  0  0  0  0  0  0
  -34.1700  -38.5560   17.6500 C   0  0  0  0  0  0  0  0  0  0  0  0
  -35.3840  -34.6220   18.2270 O   0  0  0  0  0  0  0  0  0  0  0  0
  -33.9030  -36.4440   18.7770 C   0  0  0  0  0  0  0  0  0  0  0  0
  -37.0800  -36.3870   16.8390 O   0  0  0  0  0  0  0  0  0  0  0  0
  -33.5010  -35.8550   20.0930 C   0  0  0  0  0  0  0  0  0  0  0  0
  -40.8230  -34.7010   14.5650 O   0  0  0  0  0  0  0  0  0  0  0  0
  -35.3130  -36.0160   18.3790 C   0  0  0  0  0  0  0  0  0  0  0  0
  -40.4070  -37.0180   11.3210 O   0  0  0  0  0  0  0  0  0  0  0  0
  -35.7120  -36.6750   17.0790 C   0  0  0  0  0  0  0  0  0  0  0  0
  -37.1270  -36.4990   14.5830 O   0  0  0  0  0  0  0  0  0  0  0  0
  -37.4300  -35.6570   15.7050 C   0  0  0  0  0  0  0  0  0  0  0  0
  -37.8470  -38.2230   12.4250 O   0  0  0  0  0  0  0  0  0  0  0  0
  -38.9100  -35.3720   15.7950 C   0  0  0  0  0  0  0  0  0  0  0  0
  -34.9580  -36.0910   12.3610 O   0  0  0  0  0  0  0  0  0  0  0  0
  -39.4350  -34.8440   14.4960 C   0  0  0  0  0  0  0  0  0  0  0  0
  -33.9460  -38.3980   11.0690 O   0  0  0  0  0  0  0  0  0  0  0  0
  -39.0740  -35.7810   13.3710 C   0  0  0  0  0  0  0  0  0  0  0  0
  -36.9050  -33.4980   16.4990 O   0  0  0  0  0  0  0  0  0  0  0  0
  -40.1480  -35.8440   11.2090 C   0  0  0  0  0  0  0  0  0  0  0  0
  -35.8430  -34.1600   14.7490 O   0  0  0  0  0  0  0  0  0  0  0  0
  -40.5290  -35.0830    9.9910 C   0  0  0  0  0  0  0  0  0  0  0  0
  -35.8680  -38.7750   15.9700 O   0  0  0  0  0  0  0  0  0  0  0  0
  -37.5870  -36.0220   13.3420 C   0  0  0  0  0  0  0  0  0  0  0  0
  -32.9080  -40.0730   20.4130 O   0  0  0  0  0  0  0  0  0  0  0  0
  -37.1590  -37.0190   12.2630 C   0  0  0  0  0  0  0  0  0  0  0  0
  -35.6990  -37.3020   12.3040 C   0  0  0  0  0  0  0  0  0  0  0  0
  -35.3160  -38.0460   11.0670 C   0  0  0  0  0  0  0  0  0  0  0  0
  -36.6770  -34.3470   15.6440 C   0  0  0  0  0  0  0  0  0  0  0  0
  -35.5640  -38.1860   17.2280 C   0  0  0  0  0  0  0  0  0  0  0  0
  -32.7150  -41.0670   19.4260 C   0  0  0  0  0  0  0  0  0  0  0  0
  -31.5629  -42.8763   23.5412 H   0  0  0  0  0  0  0  0  0  0  0  0
  -30.3220  -43.9603   22.8687 H   0  0  0  0  0  0  0  0  0  0  0  0
  -29.8396  -42.5513   23.8442 H   0  0  0  0  0  0  0  0  0  0  0  0
  -31.9711  -43.1761   21.0635 H   0  0  0  0  0  0  0  0  0  0  0  0
  -39.2771  -34.2181   11.9660 H   0  0  0  0  0  0  0  0  0  0  0  0
  -29.7628  -43.7981   17.8392 H   0  0  0  0  0  0  0  0  0  0  0  0
  -30.5990  -40.9539   19.5998 H   0  0  0  0  0  0  0  0  0  0  0  0
  -31.8862  -43.4304   18.6477 H   0  0  0  0  0  0  0  0  0  0  0  0
  -31.5897  -39.6028   16.2419 H   0  0  0  0  0  0  0  0  0  0  0  0
  -33.4031  -42.2668   17.1761 H   0  0  0  0  0  0  0  0  0  0  0  0
  -32.3132  -41.9236   14.9445 H   0  0  0  0  0  0  0  0  0  0  0  0
  -33.6492  -40.8050   15.3402 H   0  0  0  0  0  0  0  0  0  0  0  0
  -32.0703  -39.6833   17.9205 H   0  0  0  0  0  0  0  0  0  0  0  0
  -31.8918  -36.9040   19.7800 H   0  0  0  0  0  0  0  0  0  0  0  0
  -33.4583  -38.2562   16.8808 H   0  0  0  0  0  0  0  0  0  0  0  0
  -35.5016  -34.4064   17.2990 H   0  0  0  0  0  0  0  0  0  0  0  0
  -33.2105  -36.0871   18.0147 H   0  0  0  0  0  0  0  0  0  0  0  0
  -33.5005  -34.7680   20.0115 H   0  0  0  0  0  0  0  0  0  0  0  0
  -34.2089  -36.1685   20.8603 H   0  0  0  0  0  0  0  0  0  0  0  0
  -41.1102  -34.0476   13.9230 H   0  0  0  0  0  0  0  0  0  0  0  0
  -35.9948  -36.3253   19.1712 H   0  0  0  0  0  0  0  0  0  0  0  0
  -35.0877  -36.3115   16.2628 H   0  0  0  0  0  0  0  0  0  0  0  0
  -37.9934  -38.3852   13.3598 H   0  0  0  0  0  0  0  0  0  0  0  0
  -39.0720  -34.6191   16.5663 H   0  0  0  0  0  0  0  0  0  0  0  0
  -39.4365  -36.2931   16.0450 H   0  0  0  0  0  0  0  0  0  0  0  0
  -34.7865  -35.8630   13.2776 H   0  0  0  0  0  0  0  0  0  0  0  0
  -38.9842  -33.8701   14.3050 H   0  0  0  0  0  0  0  0  0  0  0  0
  -33.6353  -38.4820   10.1645 H   0  0  0  0  0  0  0  0  0  0  0  0
  -39.5719  -36.7391   13.5202 H   0  0  0  0  0  0  0  0  0  0  0  0
  -41.3838  -34.4447   10.2147 H   0  0  0  0  0  0  0  0  0  0  0  0
  -39.6897  -34.4660    9.6700 H   0  0  0  0  0  0  0  0  0  0  0  0
  -40.7944  -35.7790    9.1952 H   0  0  0  0  0  0  0  0  0  0  0  0
  -36.1200  -39.6924   16.0982 H   0  0  0  0  0  0  0  0  0  0  0  0
  -37.1434  -35.0530   13.1131 H   0  0  0  0  0  0  0  0  0  0  0  0
  -32.7179  -39.2093   20.0395 H   0  0  0  0  0  0  0  0  0  0  0  0
  -37.3957  -36.5644   11.3010 H   0  0  0  0  0  0  0  0  0  0  0  0
  -35.4776  -37.8944   13.1918 H   0  0  0  0  0  0  0  0  0  0  0  0
  -35.9016  -38.9646   11.0293 H   0  0  0  0  0  0  0  0  0  0  0  0
  -35.5184  -37.4177   10.1996 H   0  0  0  0  0  0  0  0  0  0  0  0
  -36.2426  -38.5491   17.9998 H   0  0  0  0  0  0  0  0  0  0  0  0
  -33.4993  -41.8170   19.5283 H   0  0  0  0  0  0  0  0  0  0  0  0
  1  4  1  0  0  0  0
  1 47  1  0  0  0  0
  1 48  1  0  0  0  0
  1 49  1  0  0  0  0
  2  4  1  0  0  0  0
  2  7  1  0  0  0  0
  2 50  1  0  0  0  0
  3  4  2  0  0  0  0
  5 33  1  0  0  0  0
  5 35  1  0  0  0  0
  5 51  1  0  0  0  0
  6  9  1  0  0  0  0
  6 52  1  0  0  0  0
  7  9  1  0  0  0  0
  7 46  1  0  0  0  0
  7 53  1  0  0  0  0
  8  9  1  0  0  0  0
  8 11  1  0  0  0  0
  9 54  1  0  0  0  0
 10 13  1  0  0  0  0
 10 55  1  0  0  0  0
 11 13  1  0  0  0  0
 11 15  1  0  0  0  0
 11 56  1  0  0  0  0
 12 15  1  0  0  0  0
 12 17  1  0  0  0  0
 13 57  1  0  0  0  0
 13 58  1  0  0  0  0
 14 17  1  0  0  0  0
 14 19  1  0  0  0  0
 15 46  1  0  0  0  0
 15 59  1  0  0  0  0
 16 21  1  0  0  0  0
 16 60  1  0  0  0  0
 17 45  1  0  0  0  0
 17 61  1  0  0  0  0
 18 23  1  0  0  0  0
 18 62  1  0  0  0  0
 19 21  1  0  0  0  0
 19 23  1  0  0  0  0
 19 63  1  0  0  0  0
 20 25  1  0  0  0  0
 20 27  1  0  0  0  0
 21 64  1  0  0  0  0
 21 65  1  0  0  0  0
 22 31  1  0  0  0  0
 22 66  1  0  0  0  0
 23 25  1  0  0  0  0
 23 67  1  0  0  0  0
 24 35  2  0  0  0  0
 25 45  1  0  0  0  0
 25 68  1  0  0  0  0
 26 27  1  0  0  0  0
 26 39  1  0  0  0  0
 27 29  1  0  0  0  0
 27 44  1  0  0  0  0
 28 41  1  0  0  0  0
 28 69  1  0  0  0  0
 29 31  1  0  0  0  0
 29 70  1  0  0  0  0
 29 71  1  0  0  0  0
 30 42  1  0  0  0  0
 30 72  1  0  0  0  0
 31 33  1  0  0  0  0
 31 73  1  0  0  0  0
 32 43  1  0  0  0  0
 32 74  1  0  0  0  0
 33 39  1  0  0  0  0
 33 75  1  0  0  0  0
 34 44  4  0  0  0  0
 35 37  1  0  0  0  0
 36 44  4  0  0  0  0
 37 76  1  0  0  0  0
 37 77  1  0  0  0  0
 37 78  1  0  0  0  0
 38 45  1  0  0  0  0
 38 79  1  0  0  0  0
 39 41  1  0  0  0  0
 39 80  1  0  0  0  0
 40 46  1  0  0  0  0
 40 81  1  0  0  0  0
 41 42  1  0  0  0  0
 41 82  1  0  0  0  0
 42 43  1  0  0  0  0
 42 83  1  0  0  0  0
 43 84  1  0  0  0  0
 43 85  1  0  0  0  0
 45 86  1  0  0  0  0
 46 87  1  0  0  0  0
M  END
>  <pdb_header>


$$$$
