epi1846961__4k63_i_model_mol
  PyMOL3.1          3D                             0

 46 48  0  0  0  0  0  0  0  0999 V2000
  -30.5600  -42.9260   23.1170 C   0  0  0  0  0  0  0  0  0  0  0  0
  -31.3280  -42.4130   20.9080 N   0  0  0  0  0  0  0  0  0  0  0  0
  -29.7390  -41.1730   21.7880 O   0  0  0  0  0  0  0  0  0  0  0  0
  -30.5010  -42.0870   21.8760 C   0  0  0  0  0  0  0  0  0  0  0  0
  -39.4960  -35.1900   12.1320 N   0  0  0  0  0  0  0  0  0  0  0  0
  -30.0330  -43.4450   18.6900 O   0  0  0  0  0  0  0  0  0  0  0  0
  -31.3640  -41.7300   19.6230 C   0  0  0  0  0  0  0  0  0  0  0  0
  -31.2630  -42.1720   17.2230 O   0  0  0  0  0  0  0  0  0  0  0  0
  -31.0840  -42.7010   18.5360 C   0  0  0  0  0  0  0  0  0  0  0  0
  -31.7730  -40.0200   15.3970 O   0  0  0  0  0  0  0  0  0  0  0  0
  -32.5850  -41.5640   17.0180 C   0  0  0  0  0  0  0  0  0  0  0  0
  -34.0970  -39.9510   17.8420 O   0  0  0  0  0  0  0  0  0  0  0  0
  -32.6310  -41.1040   15.5890 C   0  0  0  0  0  0  0  0  0  0  0  0
  -33.8620  -37.8900   18.8810 O   0  0  0  0  0  0  0  0  0  0  0  0
  -32.8140  -40.4720   18.0340 C   0  0  0  0  0  0  0  0  0  0  0  0
  -32.2140  -36.2890   20.4430 O   0  0  0  0  0  0  0  0  0  0  0  0
  -34.1700  -38.5560   17.6500 C   0  0  0  0  0  0  0  0  0  0  0  0
  -35.3840  -34.6220   18.2270 O   0  0  0  0  0  0  0  0  0  0  0  0
  -33.9030  -36.4440   18.7770 C   0  0  0  0  0  0  0  0  0  0  0  0
  -37.0800  -36.3870   16.8390 O   0  0  0  0  0  0  0  0  0  0  0  0
  -33.5010  -35.8550   20.0930 C   0  0  0  0  0  0  0  0  0  0  0  0
  -40.8230  -34.7010   14.5650 O   0  0  0  0  0  0  0  0  0  0  0  0
  -35.3130  -36.0160   18.3790 C   0  0  0  0  0  0  0  0  0  0  0  0
  -40.4070  -37.0180   11.3210 O   0  0  0  0  0  0  0  0  0  0  0  0
  -35.7120  -36.6750   17.0790 C   0  0  0  0  0  0  0  0  0  0  0  0
  -37.1270  -36.4990   14.5830 O   0  0  0  0  0  0  0  0  0  0  0  0
  -37.4300  -35.6570   15.7050 C   0  0  0  0  0  0  0  0  0  0  0  0
  -37.8470  -38.2230   12.4250 O   0  0  0  0  0  0  0  0  0  0  0  0
  -38.9100  -35.3720   15.7950 C   0  0  0  0  0  0  0  0  0  0  0  0
  -34.9580  -36.0910   12.3610 O   0  0  0  0  0  0  0  0  0  0  0  0
  -39.4350  -34.8440   14.4960 C   0  0  0  0  0  0  0  0  0  0  0  0
  -33.9460  -38.3980   11.0690 O   0  0  0  0  0  0  0  0  0  0  0  0
  -39.0740  -35.7810   13.3710 C   0  0  0  0  0  0  0  0  0  0  0  0
  -36.9050  -33.4980   16.4990 O   0  0  0  0  0  0  0  0  0  0  0  0
  -40.1480  -35.8440   11.2090 C   0  0  0  0  0  0  0  0  0  0  0  0
  -35.8430  -34.1600   14.7490 O   0  0  0  0  0  0  0  0  0  0  0  0
  -40.5290  -35.0830    9.9910 C   0  0  0  0  0  0  0  0  0  0  0  0
  -35.8680  -38.7750   15.9700 O   0  0  0  0  0  0  0  0  0  0  0  0
  -37.5870  -36.0220   13.3420 C   0  0  0  0  0  0  0  0  0  0  0  0
  -32.9080  -40.0730   20.4130 O   0  0  0  0  0  0  0  0  0  0  0  0
  -37.1590  -37.0190   12.2630 C   0  0  0  0  0  0  0  0  0  0  0  0
  -35.6990  -37.3020   12.3040 C   0  0  0  0  0  0  0  0  0  0  0  0
  -35.3160  -38.0460   11.0670 C   0  0  0  0  0  0  0  0  0  0  0  0
  -36.6770  -34.3470   15.6440 C   0  0  0  0  0  0  0  0  0  0  0  0
  -35.5640  -38.1860   17.2280 C   0  0  0  0  0  0  0  0  0  0  0  0
  -32.7150  -41.0670   19.4260 C   0  0  0  0  0  0  0  0  0  0  0  0
  1  4  1  0  0  0  0
  2  4  1  0  0  0  0
  2  7  1  0  0  0  0
  3  4  2  0  0  0  0
  5 33  1  0  0  0  0
  5 35  1  0  0  0  0
  6  9  1  0  0  0  0
  7  9  1  0  0  0  0
  7 46  1  0  0  0  0
  8  9  1  0  0  0  0
  8 11  1  0  0  0  0
 10 13  1  0  0  0  0
 11 13  1  0  0  0  0
 11 15  1  0  0  0  0
 12 15  1  0  0  0  0
 12 17  1  0  0  0  0
 14 17  1  0  0  0  0
 14 19  1  0  0  0  0
 15 46  1  0  0  0  0
 16 21  1  0  0  0  0
 17 45  1  0  0  0  0
 18 23  1  0  0  0  0
 19 21  1  0  0  0  0
 19 23  1  0  0  0  0
 20 25  1  0  0  0  0
 20 27  1  0  0  0  0
 22 31  1  0  0  0  0
 23 25  1  0  0  0  0
 24 35  2  0  0  0  0
 25 45  1  0  0  0  0
 26 27  1  0  0  0  0
 26 39  1  0  0  0  0
 27 29  1  0  0  0  0
 27 44  1  0  0  0  0
 28 41  1  0  0  0  0
 29 31  1  0  0  0  0
 30 42  1  0  0  0  0
 31 33  1  0  0  0  0
 32 43  1  0  0  0  0
 33 39  1  0  0  0  0
 34 44  4  0  0  0  0
 35 37  1  0  0  0  0
 36 44  4  0  0  0  0
 38 45  1  0  0  0  0
 39 41  1  0  0  0  0
 40 46  1  0  0  0  0
 41 42  1  0  0  0  0
 42 43  1  0  0  0  0
M  END
>  <pdb_header>


$$$$
